Circuit: * C:\Users\enric\workspace\Progetto linguaggi e compilatori\Draft1.asc

Direct Newton iteration for .op point succeeded.

Date: Fri Mar 04 14:29:44 2016
Total elapsed time: 0.035 seconds.

tnom = 27
temp = 27
method = trap
totiter = 8
traniter = 0
tranpoints = 0
accept = 0
rejected = 0
matrix size = 8
fillins = 0
solver = Normal
Matrix Compiler1:      20 opcodes
Matrix Compiler2: 594 bytes object code size

